    9
Geometry Step: 22
    C      1.00193179     -0.04405925     -0.08994226      4.25854226
    C      0.51972602      0.10483682     -1.52063837      4.04302707
    S      1.06873562     -1.27812991     -2.61077375      6.25897130
    H      2.40181042     -1.15075256     -2.45172401      0.84551592
    H     -0.57234840      0.11401055     -1.55847884      0.91982110
    H      0.86719869      1.05270885     -1.94651253      0.93259047
    H      0.63774395     -0.96640805      0.35633163      0.90759539
    H      0.64457286      0.78746758      0.51676863      0.91716405
    H      2.08906604     -0.05256404     -0.03687049      0.91677244
